L6/1726534/Cargas.dss
! ==========================================================
! CARGAS — mes 01
! BT: UCBT_tab agregada por transformador (kW = ENE/730 h)
! MT: UCMT_tab individual no PAC do consumidor
! fator de escala aplicado: 1
! 0 cargas de MT descartadas por PAC ausente da rede.
! ==========================================================
New Load.BT_326384628_980320365_1 Bus1=node_403579388.1.4 Phases=1 Model=8 zipv=(0.5,0,0.5,1,0,0,0) kv=0.1270 pf=0.92 kW=5.973516 Daily=RES1_25
New Load.BT_326384628_980320365_2 Bus1=node_403579388.2.4 Phases=1 Model=8 zipv=(0.5,0,0.5,1,0,0,0) kv=0.1270 pf=0.92 kW=5.973516 Daily=RES1_25
New Load.BT_326384628_980320365_3 Bus1=node_403579388.3.4 Phases=1 Model=8 zipv=(0.5,0,0.5,1,0,0,0) kv=0.1270 pf=0.92 kW=5.973516 Daily=RES1_25
New Load.BT_325956284_326767273_1 Bus1=node_414100343.1.4 Phases=1 Model=8 zipv=(0.5,0,0.5,1,0,0,0) kv=0.1270 pf=0.92 kW=6.874886 Daily=RES1_25
New Load.BT_325956284_326767273_2 Bus1=node_414100343.2.4 Phases=1 Model=8 zipv=(0.5,0,0.5,1,0,0,0) kv=0.1270 pf=0.92 kW=6.874886 Daily=RES1_25
New Load.BT_325956284_326767273_3 Bus1=node_414100343.3.4 Phases=1 Model=8 zipv=(0.5,0,0.5,1,0,0,0) kv=0.1270 pf=0.92 kW=6.874886 Daily=RES1_25
New Load.BT_326522111_326766986_1 Bus1=node_403579361.1.4 Phases=1 Model=8 zipv=(0.5,0,0.5,1,0,0,0) kv=0.1270 pf=0.92 kW=7.910959 Daily=RES1_25
New Load.BT_326522111_326766986_2 Bus1=node_403579361.2.4 Phases=1 Model=8 zipv=(0.5,0,0.5,1,0,0,0) kv=0.1270 pf=0.92 kW=7.910959 Daily=RES1_25
New Load.BT_326522111_326766986_3 Bus1=node_403579361.3.4 Phases=1 Model=8 zipv=(0.5,0,0.5,1,0,0,0) kv=0.1270 pf=0.92 kW=7.910959 Daily=RES1_25
New Load.BT_326386221_326705209_1 Bus1=node_418164010.1.4 Phases=1 Model=8 zipv=(0.5,0,0.5,1,0,0,0) kv=0.1200 pf=0.92 kW=0.558904 Daily=RUR1_29
New Load.BT_326386221_326705209_2 Bus1=node_418164010.2.4 Phases=1 Model=8 zipv=(0.5,0,0.5,1,0,0,0) kv=0.1200 pf=0.92 kW=0.558904 Daily=RUR1_29
New Load.BT_359695042_359810576_1 Bus1=node_494745848.1.4 Phases=1 Model=8 zipv=(0.5,0,0.5,1,0,0,0) kv=0.1200 pf=0.92 kW=1.683562 Daily=RUR1_29
New Load.BT_359695042_359810576_2 Bus1=node_494745848.2.4 Phases=1 Model=8 zipv=(0.5,0,0.5,1,0,0,0) kv=0.1200 pf=0.92 kW=1.683562 Daily=RUR1_29
New Load.BT_326385642_326767194_1 Bus1=node_414096815.1.4 Phases=1 Model=8 zipv=(0.5,0,0.5,1,0,0,0) kv=0.1200 pf=0.92 kW=2.219178 Daily=RES1_25
New Load.BT_326385642_326767194_2 Bus1=node_414096815.2.4 Phases=1 Model=8 zipv=(0.5,0,0.5,1,0,0,0) kv=0.1200 pf=0.92 kW=2.219178 Daily=RES1_25
New Load.BT_326254499_1119943905_1 Bus1=node_414100400.1.4 Phases=1 Model=8 zipv=(0.5,0,0.5,1,0,0,0) kv=0.1270 pf=0.92 kW=8.551598 Daily=COM1_26
New Load.BT_326254499_1119943905_2 Bus1=node_414100400.2.4 Phases=1 Model=8 zipv=(0.5,0,0.5,1,0,0,0) kv=0.1270 pf=0.92 kW=8.551598 Daily=COM1_26
New Load.BT_326254499_1119943905_3 Bus1=node_414100400.3.4 Phases=1 Model=8 zipv=(0.5,0,0.5,1,0,0,0) kv=0.1270 pf=0.92 kW=8.551598 Daily=COM1_26
New Load.BT_325954943_326767275_1 Bus1=node_414100277.1.4 Phases=1 Model=8 zipv=(0.5,0,0.5,1,0,0,0) kv=0.1270 pf=0.92 kW=3.034703 Daily=RES1_25
New Load.BT_325954943_326767275_2 Bus1=node_414100277.2.4 Phases=1 Model=8 zipv=(0.5,0,0.5,1,0,0,0) kv=0.1270 pf=0.92 kW=3.034703 Daily=RES1_25
New Load.BT_325954943_326767275_3 Bus1=node_414100277.3.4 Phases=1 Model=8 zipv=(0.5,0,0.5,1,0,0,0) kv=0.1270 pf=0.92 kW=3.034703 Daily=RES1_25
New Load.BT_359727600_359916994_1 Bus1=node_414123160.1.4 Phases=1 Model=8 zipv=(0.5,0,0.5,1,0,0,0) kv=0.1270 pf=0.92 kW=10.926484 Daily=RES1_25
New Load.BT_359727600_359916994_2 Bus1=node_414123160.2.4 Phases=1 Model=8 zipv=(0.5,0,0.5,1,0,0,0) kv=0.1270 pf=0.92 kW=10.926484 Daily=RES1_25
New Load.BT_359727600_359916994_3 Bus1=node_414123160.3.4 Phases=1 Model=8 zipv=(0.5,0,0.5,1,0,0,0) kv=0.1270 pf=0.92 kW=10.926484 Daily=RES1_25
New Load.BT_325953449_2703511130_1 Bus1=node_403649097.1.4 Phases=1 Model=8 zipv=(0.5,0,0.5,1,0,0,0) kv=0.1270 pf=0.92 kW=9.457991 Daily=RES1_25
New Load.BT_325953449_2703511130_2 Bus1=node_403649097.2.4 Phases=1 Model=8 zipv=(0.5,0,0.5,1,0,0,0) kv=0.1270 pf=0.92 kW=9.457991 Daily=RES1_25
New Load.BT_325953449_2703511130_3 Bus1=node_403649097.3.4 Phases=1 Model=8 zipv=(0.5,0,0.5,1,0,0,0) kv=0.1270 pf=0.92 kW=9.457991 Daily=RES1_25
New Load.BT_326385849_326786884_1 Bus1=node_418180020.1.4 Phases=1 Model=8 zipv=(0.5,0,0.5,1,0,0,0) kv=0.1200 pf=0.92 kW=0.761644 Daily=RES1_25
New Load.BT_326385849_326786884_2 Bus1=node_418180020.2.4 Phases=1 Model=8 zipv=(0.5,0,0.5,1,0,0,0) kv=0.1200 pf=0.92 kW=0.761644 Daily=RES1_25
New Load.BT_325523528_326744391_1 Bus1=node_403579346.1.4 Phases=1 Model=8 zipv=(0.5,0,0.5,1,0,0,0) kv=0.1270 pf=0.92 kW=8.942009 Daily=RES1_25
New Load.BT_325523528_326744391_2 Bus1=node_403579346.2.4 Phases=1 Model=8 zipv=(0.5,0,0.5,1,0,0,0) kv=0.1270 pf=0.92 kW=8.942009 Daily=RES1_25
New Load.BT_325523528_326744391_3 Bus1=node_403579346.3.4 Phases=1 Model=8 zipv=(0.5,0,0.5,1,0,0,0) kv=0.1270 pf=0.92 kW=8.942009 Daily=RES1_25
New Load.BT_326107292_326745861_1 Bus1=node_414122368.1.4 Phases=1 Model=8 zipv=(0.5,0,0.5,1,0,0,0) kv=0.1270 pf=0.92 kW=7.123288 Daily=RES1_25
New Load.BT_326107292_326745861_2 Bus1=node_414122368.2.4 Phases=1 Model=8 zipv=(0.5,0,0.5,1,0,0,0) kv=0.1270 pf=0.92 kW=7.123288 Daily=RES1_25
New Load.BT_326107292_326745861_3 Bus1=node_414122368.3.4 Phases=1 Model=8 zipv=(0.5,0,0.5,1,0,0,0) kv=0.1270 pf=0.92 kW=7.123288 Daily=RES1_25
New Load.BT_326254110_326786859_1 Bus1=node_403579034.1.4 Phases=1 Model=8 zipv=(0.5,0,0.5,1,0,0,0) kv=0.1270 pf=0.92 kW=5.877169 Daily=RES1_25
New Load.BT_326254110_326786859_2 Bus1=node_403579034.2.4 Phases=1 Model=8 zipv=(0.5,0,0.5,1,0,0,0) kv=0.1270 pf=0.92 kW=5.877169 Daily=RES1_25
New Load.BT_326254110_326786859_3 Bus1=node_403579034.3.4 Phases=1 Model=8 zipv=(0.5,0,0.5,1,0,0,0) kv=0.1270 pf=0.92 kW=5.877169 Daily=RES1_25
New Load.BT_326383519_326744582_1 Bus1=node_414097553.1.4 Phases=1 Model=8 zipv=(0.5,0,0.5,1,0,0,0) kv=0.1200 pf=0.92 kW=0.705479 Daily=RUR1_29
New Load.BT_326383519_326744582_2 Bus1=node_414097553.2.4 Phases=1 Model=8 zipv=(0.5,0,0.5,1,0,0,0) kv=0.1200 pf=0.92 kW=0.705479 Daily=RUR1_29
New Load.BT_326107187_326723337_1 Bus1=node_414125128.1.4 Phases=1 Model=8 zipv=(0.5,0,0.5,1,0,0,0) kv=0.1270 pf=0.92 kW=6.915525 Daily=RES1_25
New Load.BT_326107187_326723337_2 Bus1=node_414125128.2.4 Phases=1 Model=8 zipv=(0.5,0,0.5,1,0,0,0) kv=0.1270 pf=0.92 kW=6.915525 Daily=RES1_25
New Load.BT_326107187_326723337_3 Bus1=node_414125128.3.4 Phases=1 Model=8 zipv=(0.5,0,0.5,1,0,0,0) kv=0.1270 pf=0.92 kW=6.915525 Daily=RES1_25
New Load.BT_979620280_979620279_1 Bus1=node_2334909804.1.4 Phases=1 Model=8 zipv=(0.5,0,0.5,1,0,0,0) kv=0.1200 pf=0.92 kW=1.473288 Daily=RES1_25
New Load.BT_979620280_979620279_2 Bus1=node_2334909804.2.4 Phases=1 Model=8 zipv=(0.5,0,0.5,1,0,0,0) kv=0.1200 pf=0.92 kW=1.473288 Daily=RES1_25
New Load.BT_326106241_326747214_1 Bus1=node_416903098.1.4 Phases=1 Model=8 zipv=(0.5,0,0.5,1,0,0,0) kv=0.1200 pf=0.92 kW=0.279452 Daily=RES1_25
New Load.BT_326106241_326747214_2 Bus1=node_416903098.2.4 Phases=1 Model=8 zipv=(0.5,0,0.5,1,0,0,0) kv=0.1200 pf=0.92 kW=0.279452 Daily=RES1_25
New Load.BT_326105249_326723191_1 Bus1=node_403649766.1.4 Phases=1 Model=8 zipv=(0.5,0,0.5,1,0,0,0) kv=0.1270 pf=0.92 kW=4.697260 Daily=RES1_25
New Load.BT_326105249_326723191_2 Bus1=node_403649766.2.4 Phases=1 Model=8 zipv=(0.5,0,0.5,1,0,0,0) kv=0.1270 pf=0.92 kW=4.697260 Daily=RES1_25
New Load.BT_326105249_326723191_3 Bus1=node_403649766.3.4 Phases=1 Model=8 zipv=(0.5,0,0.5,1,0,0,0) kv=0.1270 pf=0.92 kW=4.697260 Daily=RES1_25
New Load.BT_2038958721_2038958725_1 Bus1=node_2354533388.1.4 Phases=1 Model=8 zipv=(0.5,0,0.5,1,0,0,0) kv=0.1200 pf=0.92 kW=0.685616 Daily=RES1_25
New Load.BT_2038958721_2038958725_2 Bus1=node_2354533388.2.4 Phases=1 Model=8 zipv=(0.5,0,0.5,1,0,0,0) kv=0.1200 pf=0.92 kW=0.685616 Daily=RES1_25
New Load.BT_326384300_326744541_1 Bus1=node_414074268.1.4 Phases=1 Model=8 zipv=(0.5,0,0.5,1,0,0,0) kv=0.1200 pf=0.92 kW=1.527397 Daily=RUR1_29
New Load.BT_326384300_326744541_2 Bus1=node_414074268.2.4 Phases=1 Model=8 zipv=(0.5,0,0.5,1,0,0,0) kv=0.1200 pf=0.92 kW=1.527397 Daily=RUR1_29
New Load.BT_325957042_326747411_1 Bus1=node_405227889.1.4 Phases=1 Model=8 zipv=(0.5,0,0.5,1,0,0,0) kv=0.1270 pf=0.92 kW=8.818721 Daily=RES1_25
New Load.BT_325957042_326747411_2 Bus1=node_405227889.2.4 Phases=1 Model=8 zipv=(0.5,0,0.5,1,0,0,0) kv=0.1270 pf=0.92 kW=8.818721 Daily=RES1_25
New Load.BT_325957042_326747411_3 Bus1=node_405227889.3.4 Phases=1 Model=8 zipv=(0.5,0,0.5,1,0,0,0) kv=0.1270 pf=0.92 kW=8.818721 Daily=RES1_25
New Load.BT_326383124_326745830_1 Bus1=node_414073740.1.4 Phases=1 Model=8 zipv=(0.5,0,0.5,1,0,0,0) kv=0.1200 pf=0.92 kW=0.616438 Daily=RUR1_29
New Load.BT_326383124_326745830_2 Bus1=node_414073740.2.4 Phases=1 Model=8 zipv=(0.5,0,0.5,1,0,0,0) kv=0.1200 pf=0.92 kW=0.616438 Daily=RUR1_29
New Load.BT_326103790_571548576_1 Bus1=node_403649937.1.4 Phases=1 Model=8 zipv=(0.5,0,0.5,1,0,0,0) kv=0.1270 pf=0.92 kW=7.347032 Daily=RES1_25
New Load.BT_326103790_571548576_2 Bus1=node_403649937.2.4 Phases=1 Model=8 zipv=(0.5,0,0.5,1,0,0,0) kv=0.1270 pf=0.92 kW=7.347032 Daily=RES1_25
New Load.BT_326103790_571548576_3 Bus1=node_403649937.3.4 Phases=1 Model=8 zipv=(0.5,0,0.5,1,0,0,0) kv=0.1270 pf=0.92 kW=7.347032 Daily=RES1_25
New Load.BT_326385726_326723186_1 Bus1=node_403649037.1.4 Phases=1 Model=8 zipv=(0.5,0,0.5,1,0,0,0) kv=0.1270 pf=0.92 kW=4.073516 Daily=RES1_25
New Load.BT_326385726_326723186_2 Bus1=node_403649037.2.4 Phases=1 Model=8 zipv=(0.5,0,0.5,1,0,0,0) kv=0.1270 pf=0.92 kW=4.073516 Daily=RES1_25
New Load.BT_326385726_326723186_3 Bus1=node_403649037.3.4 Phases=1 Model=8 zipv=(0.5,0,0.5,1,0,0,0) kv=0.1270 pf=0.92 kW=4.073516 Daily=RES1_25
New Load.BT_326382861_326705032_1 Bus1=node_453374073.1.4 Phases=1 Model=8 zipv=(0.5,0,0.5,1,0,0,0) kv=0.1200 pf=0.92 kW=0.002055 Daily=RES1_25
New Load.BT_326382861_326705032_2 Bus1=node_453374073.2.4 Phases=1 Model=8 zipv=(0.5,0,0.5,1,0,0,0) kv=0.1200 pf=0.92 kW=0.002055 Daily=RES1_25
New Load.BT_326384712_326744331_1 Bus1=node_418157496.1.4 Phases=1 Model=8 zipv=(0.5,0,0.5,1,0,0,0) kv=0.1200 pf=0.92 kW=0.449315 Daily=COM1_26
New Load.BT_326384712_326744331_2 Bus1=node_418157496.2.4 Phases=1 Model=8 zipv=(0.5,0,0.5,1,0,0,0) kv=0.1200 pf=0.92 kW=0.449315 Daily=COM1_26
New Load.BT_326384991_326745688_1 Bus1=node_403727732.1.4 Phases=1 Model=8 zipv=(0.5,0,0.5,1,0,0,0) kv=0.1200 pf=0.92 kW=0.500685 Daily=RUR1_29
New Load.BT_326384991_326745688_2 Bus1=node_403727732.2.4 Phases=1 Model=8 zipv=(0.5,0,0.5,1,0,0,0) kv=0.1200 pf=0.92 kW=0.500685 Daily=RUR1_29
New Load.BT_326256615_326766987_1 Bus1=node_403579133.1.4 Phases=1 Model=8 zipv=(0.5,0,0.5,1,0,0,0) kv=0.1270 pf=0.92 kW=7.145205 Daily=RES1_25
New Load.BT_326256615_326766987_2 Bus1=node_403579133.2.4 Phases=1 Model=8 zipv=(0.5,0,0.5,1,0,0,0) kv=0.1270 pf=0.92 kW=7.145205 Daily=RES1_25
New Load.BT_326256615_326766987_3 Bus1=node_403579133.3.4 Phases=1 Model=8 zipv=(0.5,0,0.5,1,0,0,0) kv=0.1270 pf=0.92 kW=7.145205 Daily=RES1_25
New Load.BT_326384475_993953839_1 Bus1=node_420061669.1.4 Phases=1 Model=8 zipv=(0.5,0,0.5,1,0,0,0) kv=0.1200 pf=0.92 kW=0.384247 Daily=RES1_25
New Load.BT_326384475_993953839_2 Bus1=node_420061669.2.4 Phases=1 Model=8 zipv=(0.5,0,0.5,1,0,0,0) kv=0.1200 pf=0.92 kW=0.384247 Daily=RES1_25
New Load.BT_326257923_326723292_1 Bus1=node_414074082.1.4 Phases=1 Model=8 zipv=(0.5,0,0.5,1,0,0,0) kv=0.1200 pf=0.92 kW=0.506164 Daily=COM1_26
New Load.BT_326257923_326723292_2 Bus1=node_414074082.2.4 Phases=1 Model=8 zipv=(0.5,0,0.5,1,0,0,0) kv=0.1200 pf=0.92 kW=0.506164 Daily=COM1_26
New Load.BT_325954717_419798616_1 Bus1=node_403579103.1.4 Phases=1 Model=8 zipv=(0.5,0,0.5,1,0,0,0) kv=0.1270 pf=0.92 kW=7.258447 Daily=RES1_25
New Load.BT_325954717_419798616_2 Bus1=node_403579103.2.4 Phases=1 Model=8 zipv=(0.5,0,0.5,1,0,0,0) kv=0.1270 pf=0.92 kW=7.258447 Daily=RES1_25
New Load.BT_325954717_419798616_3 Bus1=node_403579103.3.4 Phases=1 Model=8 zipv=(0.5,0,0.5,1,0,0,0) kv=0.1270 pf=0.92 kW=7.258447 Daily=RES1_25
New Load.BT_325955181_326789728_1 Bus1=node_414124366.1.4 Phases=1 Model=8 zipv=(0.5,0,0.5,1,0,0,0) kv=0.1270 pf=0.92 kW=5.186758 Daily=RES1_25
New Load.BT_325955181_326789728_2 Bus1=node_414124366.2.4 Phases=1 Model=8 zipv=(0.5,0,0.5,1,0,0,0) kv=0.1270 pf=0.92 kW=5.186758 Daily=RES1_25
New Load.BT_325955181_326789728_3 Bus1=node_414124366.3.4 Phases=1 Model=8 zipv=(0.5,0,0.5,1,0,0,0) kv=0.1270 pf=0.92 kW=5.186758 Daily=RES1_25
New Load.BT_326106808_326767257_1 Bus1=node_414096860.1.4 Phases=1 Model=8 zipv=(0.5,0,0.5,1,0,0,0) kv=0.1200 pf=0.92 kW=0.585616 Daily=RUR1_29
New Load.BT_326106808_326767257_2 Bus1=node_414096860.2.4 Phases=1 Model=8 zipv=(0.5,0,0.5,1,0,0,0) kv=0.1200 pf=0.92 kW=0.585616 Daily=RUR1_29
New Load.BT_325956711_326745734_1 Bus1=node_458237478.1.4 Phases=1 Model=8 zipv=(0.5,0,0.5,1,0,0,0) kv=0.1200 pf=0.92 kW=0.337671 Daily=RUR1_29
New Load.BT_325956711_326745734_2 Bus1=node_458237478.2.4 Phases=1 Model=8 zipv=(0.5,0,0.5,1,0,0,0) kv=0.1200 pf=0.92 kW=0.337671 Daily=RUR1_29
New Load.BT_326523626_326745694_1 Bus1=node_403649049.1.4 Phases=1 Model=8 zipv=(0.5,0,0.5,1,0,0,0) kv=0.1270 pf=0.92 kW=3.078082 Daily=RES1_25
New Load.BT_326523626_326745694_2 Bus1=node_403649049.2.4 Phases=1 Model=8 zipv=(0.5,0,0.5,1,0,0,0) kv=0.1270 pf=0.92 kW=3.078082 Daily=RES1_25
New Load.BT_326523626_326745694_3 Bus1=node_403649049.3.4 Phases=1 Model=8 zipv=(0.5,0,0.5,1,0,0,0) kv=0.1270 pf=0.92 kW=3.078082 Daily=RES1_25
New Load.BT_325954884_326788372_1 Bus1=node_415432568.1.4 Phases=1 Model=8 zipv=(0.5,0,0.5,1,0,0,0) kv=0.1270 pf=0.92 kW=6.888128 Daily=RES1_25
New Load.BT_325954884_326788372_2 Bus1=node_415432568.2.4 Phases=1 Model=8 zipv=(0.5,0,0.5,1,0,0,0) kv=0.1270 pf=0.92 kW=6.888128 Daily=RES1_25
New Load.BT_325954884_326788372_3 Bus1=node_415432568.3.4 Phases=1 Model=8 zipv=(0.5,0,0.5,1,0,0,0) kv=0.1270 pf=0.92 kW=6.888128 Daily=RES1_25
New Load.BT_326520138_326723262_1 Bus1=node_414144905.1.4 Phases=1 Model=8 zipv=(0.5,0,0.5,1,0,0,0) kv=0.1200 pf=0.92 kW=0.384247 Daily=RUR1_29
New Load.BT_326520138_326723262_2 Bus1=node_414144905.2.4 Phases=1 Model=8 zipv=(0.5,0,0.5,1,0,0,0) kv=0.1200 pf=0.92 kW=0.384247 Daily=RUR1_29
New Load.BT_325953421_326721928_1 Bus1=node_403579322.1.4 Phases=1 Model=8 zipv=(0.5,0,0.5,1,0,0,0) kv=0.1270 pf=0.92 kW=4.750685 Daily=RES1_25
New Load.BT_325953421_326721928_2 Bus1=node_403579322.2.4 Phases=1 Model=8 zipv=(0.5,0,0.5,1,0,0,0) kv=0.1270 pf=0.92 kW=4.750685 Daily=RES1_25
New Load.BT_325953421_326721928_3 Bus1=node_403579322.3.4 Phases=1 Model=8 zipv=(0.5,0,0.5,1,0,0,0) kv=0.1270 pf=0.92 kW=4.750685 Daily=RES1_25
New Load.BT_326256368_326725360_1 Bus1=node_414125050.1.4 Phases=1 Model=8 zipv=(0.5,0,0.5,1,0,0,0) kv=0.1270 pf=0.92 kW=4.859361 Daily=RES1_25
New Load.BT_326256368_326725360_2 Bus1=node_414125050.2.4 Phases=1 Model=8 zipv=(0.5,0,0.5,1,0,0,0) kv=0.1270 pf=0.92 kW=4.859361 Daily=RES1_25
New Load.BT_326256368_326725360_3 Bus1=node_414125050.3.4 Phases=1 Model=8 zipv=(0.5,0,0.5,1,0,0,0) kv=0.1270 pf=0.92 kW=4.859361 Daily=RES1_25
New Load.BT_326522726_326747229_1 Bus1=node_415238663.1.4 Phases=1 Model=8 zipv=(0.5,0,0.5,1,0,0,0) kv=0.1200 pf=0.92 kW=0.395205 Daily=RUR1_29
New Load.BT_326522726_326747229_2 Bus1=node_415238663.2.4 Phases=1 Model=8 zipv=(0.5,0,0.5,1,0,0,0) kv=0.1200 pf=0.92 kW=0.395205 Daily=RUR1_29
New Load.BT_326520825_326745887_1 Bus1=node_414097031.1.4 Phases=1 Model=8 zipv=(0.5,0,0.5,1,0,0,0) kv=0.1200 pf=0.92 kW=0.340411 Daily=RUR1_29
New Load.BT_326520825_326745887_2 Bus1=node_414097031.2.4 Phases=1 Model=8 zipv=(0.5,0,0.5,1,0,0,0) kv=0.1200 pf=0.92 kW=0.340411 Daily=RUR1_29
New Load.BT_326105881_326767282_1 Bus1=node_414097427.1.4 Phases=1 Model=8 zipv=(0.5,0,0.5,1,0,0,0) kv=0.1200 pf=0.92 kW=0.412329 Daily=RUR1_29
New Load.BT_326105881_326767282_2 Bus1=node_414097427.2.4 Phases=1 Model=8 zipv=(0.5,0,0.5,1,0,0,0) kv=0.1200 pf=0.92 kW=0.412329 Daily=RUR1_29
New Load.BT_326257540_326789602_1 Bus1=node_403578935.1.4 Phases=1 Model=8 zipv=(0.5,0,0.5,1,0,0,0) kv=0.1270 pf=0.92 kW=5.280822 Daily=RES1_25
New Load.BT_326257540_326789602_2 Bus1=node_403578935.2.4 Phases=1 Model=8 zipv=(0.5,0,0.5,1,0,0,0) kv=0.1270 pf=0.92 kW=5.280822 Daily=RES1_25
New Load.BT_326257540_326789602_3 Bus1=node_403578935.3.4 Phases=1 Model=8 zipv=(0.5,0,0.5,1,0,0,0) kv=0.1270 pf=0.92 kW=5.280822 Daily=RES1_25
New Load.BT_326254512_2544221039_1 Bus1=node_414096473.1.4 Phases=1 Model=8 zipv=(0.5,0,0.5,1,0,0,0) kv=0.1200 pf=0.92 kW=0.358219 Daily=COM1_26
New Load.BT_326254512_2544221039_2 Bus1=node_414096473.2.4 Phases=1 Model=8 zipv=(0.5,0,0.5,1,0,0,0) kv=0.1200 pf=0.92 kW=0.358219 Daily=COM1_26
New Load.BT_326385585_326723370_1 Bus1=node_414096893.1.4 Phases=1 Model=8 zipv=(0.5,0,0.5,1,0,0,0) kv=0.1200 pf=0.92 kW=0.310274 Daily=RUR1_29
New Load.BT_326385585_326723370_2 Bus1=node_414096893.2.4 Phases=1 Model=8 zipv=(0.5,0,0.5,1,0,0,0) kv=0.1200 pf=0.92 kW=0.310274 Daily=RUR1_29
New Load.BT_359728191_359811050_1 Bus1=node_414123355.1.4 Phases=1 Model=8 zipv=(0.5,0,0.5,1,0,0,0) kv=0.1270 pf=0.92 kW=7.141553 Daily=RES1_25
New Load.BT_359728191_359811050_2 Bus1=node_414123355.2.4 Phases=1 Model=8 zipv=(0.5,0,0.5,1,0,0,0) kv=0.1270 pf=0.92 kW=7.141553 Daily=RES1_25
New Load.BT_359728191_359811050_3 Bus1=node_414123355.3.4 Phases=1 Model=8 zipv=(0.5,0,0.5,1,0,0,0) kv=0.1270 pf=0.92 kW=7.141553 Daily=RES1_25
New Load.BT_325954705_326723342_1 Bus1=node_414100193.1.4 Phases=1 Model=8 zipv=(0.5,0,0.5,1,0,0,0) kv=0.1270 pf=0.92 kW=4.400913 Daily=RES1_25
New Load.BT_325954705_326723342_2 Bus1=node_414100193.2.4 Phases=1 Model=8 zipv=(0.5,0,0.5,1,0,0,0) kv=0.1270 pf=0.92 kW=4.400913 Daily=RES1_25
New Load.BT_325954705_326723342_3 Bus1=node_414100193.3.4 Phases=1 Model=8 zipv=(0.5,0,0.5,1,0,0,0) kv=0.1270 pf=0.92 kW=4.400913 Daily=RES1_25
New Load.BT_326254095_326721963_1 Bus1=node_403730141.1.4 Phases=1 Model=8 zipv=(0.5,0,0.5,1,0,0,0) kv=0.1200 pf=0.92 kW=0.330137 Daily=RUR1_29
New Load.BT_326254095_326721963_2 Bus1=node_403730141.2.4 Phases=1 Model=8 zipv=(0.5,0,0.5,1,0,0,0) kv=0.1200 pf=0.92 kW=0.330137 Daily=RUR1_29
New Load.BT_325955842_326705010_1 Bus1=node_403649046.1.4 Phases=1 Model=8 zipv=(0.5,0,0.5,1,0,0,0) kv=0.1270 pf=0.92 kW=15.437900 Daily=RES1_25
New Load.BT_325955842_326705010_2 Bus1=node_403649046.2.4 Phases=1 Model=8 zipv=(0.5,0,0.5,1,0,0,0) kv=0.1270 pf=0.92 kW=15.437900 Daily=RES1_25
New Load.BT_325955842_326705010_3 Bus1=node_403649046.3.4 Phases=1 Model=8 zipv=(0.5,0,0.5,1,0,0,0) kv=0.1270 pf=0.92 kW=15.437900 Daily=RES1_25
New Load.BT_326257708_326787094_1 Bus1=node_414097346.1.4 Phases=1 Model=8 zipv=(0.5,0,0.5,1,0,0,0) kv=0.1200 pf=0.92 kW=0.200000 Daily=RUR1_29
New Load.BT_326257708_326787094_2 Bus1=node_414097346.2.4 Phases=1 Model=8 zipv=(0.5,0,0.5,1,0,0,0) kv=0.1200 pf=0.92 kW=0.200000 Daily=RUR1_29
New Load.BT_359774653_2690850347_1 Bus1=node_414144647.1.4 Phases=1 Model=8 zipv=(0.5,0,0.5,1,0,0,0) kv=0.1200 pf=0.92 kW=0.254110 Daily=RUR1_29
New Load.BT_359774653_2690850347_2 Bus1=node_414144647.2.4 Phases=1 Model=8 zipv=(0.5,0,0.5,1,0,0,0) kv=0.1200 pf=0.92 kW=0.254110 Daily=RUR1_29
New Load.BT_325954713_326746250_1 Bus1=node_415962478.1.4 Phases=1 Model=8 zipv=(0.5,0,0.5,1,0,0,0) kv=0.1270 pf=0.92 kW=2.367580 Daily=RES1_25
New Load.BT_325954713_326746250_2 Bus1=node_415962478.2.4 Phases=1 Model=8 zipv=(0.5,0,0.5,1,0,0,0) kv=0.1270 pf=0.92 kW=2.367580 Daily=RES1_25
New Load.BT_325954713_326746250_3 Bus1=node_415962478.3.4 Phases=1 Model=8 zipv=(0.5,0,0.5,1,0,0,0) kv=0.1270 pf=0.92 kW=2.367580 Daily=RES1_25
New Load.BT_326256765_326786885_1 Bus1=node_414125794.1.4 Phases=1 Model=8 zipv=(0.5,0,0.5,1,0,0,0) kv=0.1200 pf=0.92 kW=0.173288 Daily=COM1_26
New Load.BT_326256765_326786885_2 Bus1=node_414125794.2.4 Phases=1 Model=8 zipv=(0.5,0,0.5,1,0,0,0) kv=0.1200 pf=0.92 kW=0.173288 Daily=COM1_26
New Load.BT_325955862_326706876_1 Bus1=node_415999527.1.4 Phases=1 Model=8 zipv=(0.5,0,0.5,1,0,0,0) kv=0.1270 pf=0.92 kW=0.627854 Daily=RES1_25
New Load.BT_325955862_326706876_2 Bus1=node_415999527.2.4 Phases=1 Model=8 zipv=(0.5,0,0.5,1,0,0,0) kv=0.1270 pf=0.92 kW=0.627854 Daily=RES1_25
New Load.BT_325955862_326706876_3 Bus1=node_415999527.3.4 Phases=1 Model=8 zipv=(0.5,0,0.5,1,0,0,0) kv=0.1270 pf=0.92 kW=0.627854 Daily=RES1_25
New Load.BT_326384455_326705011_1 Bus1=node_403579124.1.4 Phases=1 Model=8 zipv=(0.5,0,0.5,1,0,0,0) kv=0.1270 pf=0.92 kW=7.604566 Daily=RES1_25
New Load.BT_326384455_326705011_2 Bus1=node_403579124.2.4 Phases=1 Model=8 zipv=(0.5,0,0.5,1,0,0,0) kv=0.1270 pf=0.92 kW=7.604566 Daily=RES1_25
New Load.BT_326384455_326705011_3 Bus1=node_403579124.3.4 Phases=1 Model=8 zipv=(0.5,0,0.5,1,0,0,0) kv=0.1270 pf=0.92 kW=7.604566 Daily=RES1_25
New Load.BT_326521617_326721969_1 Bus1=node_414123910.1.4 Phases=1 Model=8 zipv=(0.5,0,0.5,1,0,0,0) kv=0.1200 pf=0.92 kW=0.250685 Daily=COM1_26
New Load.BT_326521617_326721969_2 Bus1=node_414123910.2.4 Phases=1 Model=8 zipv=(0.5,0,0.5,1,0,0,0) kv=0.1200 pf=0.92 kW=0.250685 Daily=COM1_26
New Load.BT_1655203929_1655203928_1 Bus1=node_1975901379.1.4 Phases=1 Model=8 zipv=(0.5,0,0.5,1,0,0,0) kv=0.1200 pf=0.92 kW=0.239041 Daily=COM1_26
New Load.BT_1655203929_1655203928_2 Bus1=node_1975901379.2.4 Phases=1 Model=8 zipv=(0.5,0,0.5,1,0,0,0) kv=0.1200 pf=0.92 kW=0.239041 Daily=COM1_26
New Load.BT_359645600_359941493_1 Bus1=node_414123448.1.4 Phases=1 Model=8 zipv=(0.5,0,0.5,1,0,0,0) kv=0.1270 pf=0.92 kW=4.400000 Daily=RES1_25
New Load.BT_359645600_359941493_2 Bus1=node_414123448.2.4 Phases=1 Model=8 zipv=(0.5,0,0.5,1,0,0,0) kv=0.1270 pf=0.92 kW=4.400000 Daily=RES1_25
New Load.BT_359645600_359941493_3 Bus1=node_414123448.3.4 Phases=1 Model=8 zipv=(0.5,0,0.5,1,0,0,0) kv=0.1270 pf=0.92 kW=4.400000 Daily=RES1_25
New Load.BT_325953279_326745864_1 Bus1=node_414123505.1.4 Phases=1 Model=8 zipv=(0.5,0,0.5,1,0,0,0) kv=0.1270 pf=0.92 kW=6.512329 Daily=RES1_25
New Load.BT_325953279_326745864_2 Bus1=node_414123505.2.4 Phases=1 Model=8 zipv=(0.5,0,0.5,1,0,0,0) kv=0.1270 pf=0.92 kW=6.512329 Daily=RES1_25
New Load.BT_325953279_326745864_3 Bus1=node_414123505.3.4 Phases=1 Model=8 zipv=(0.5,0,0.5,1,0,0,0) kv=0.1270 pf=0.92 kW=6.512329 Daily=RES1_25
New Load.BT_325955725_326705631_1 Bus1=node_415961320.1.4 Phases=1 Model=8 zipv=(0.5,0,0.5,1,0,0,0) kv=0.1270 pf=0.92 kW=1.571689 Daily=RES1_25
New Load.BT_325955725_326705631_2 Bus1=node_415961320.2.4 Phases=1 Model=8 zipv=(0.5,0,0.5,1,0,0,0) kv=0.1270 pf=0.92 kW=1.571689 Daily=RES1_25
New Load.BT_325955725_326705631_3 Bus1=node_415961320.3.4 Phases=1 Model=8 zipv=(0.5,0,0.5,1,0,0,0) kv=0.1270 pf=0.92 kW=1.571689 Daily=RES1_25
New Load.BT_326256477_326786855_1 Bus1=node_403727744.1.4 Phases=1 Model=8 zipv=(0.5,0,0.5,1,0,0,0) kv=0.1270 pf=0.92 kW=4.501826 Daily=RES1_25
New Load.BT_326256477_326786855_2 Bus1=node_403727744.2.4 Phases=1 Model=8 zipv=(0.5,0,0.5,1,0,0,0) kv=0.1270 pf=0.92 kW=4.501826 Daily=RES1_25
New Load.BT_326256477_326786855_3 Bus1=node_403727744.3.4 Phases=1 Model=8 zipv=(0.5,0,0.5,1,0,0,0) kv=0.1270 pf=0.92 kW=4.501826 Daily=RES1_25
New Load.BT_325955216_326723309_1 Bus1=node_414096599.1.4 Phases=1 Model=8 zipv=(0.5,0,0.5,1,0,0,0) kv=0.1200 pf=0.92 kW=0.047260 Daily=RES1_25
New Load.BT_325955216_326723309_2 Bus1=node_414096599.2.4 Phases=1 Model=8 zipv=(0.5,0,0.5,1,0,0,0) kv=0.1200 pf=0.92 kW=0.047260 Daily=RES1_25
New Load.BT_325955178_326745834_1 Bus1=node_414073809.1.4 Phases=1 Model=8 zipv=(0.5,0,0.5,1,0,0,0) kv=0.1200 pf=0.92 kW=0.175342 Daily=RUR1_29
New Load.BT_325955178_326745834_2 Bus1=node_414073809.2.4 Phases=1 Model=8 zipv=(0.5,0,0.5,1,0,0,0) kv=0.1200 pf=0.92 kW=0.175342 Daily=RUR1_29
New Load.BT_326106099_326767038_1 Bus1=node_418181661.1.4 Phases=1 Model=8 zipv=(0.5,0,0.5,1,0,0,0) kv=0.1200 pf=0.92 kW=0.168493 Daily=RUR1_29
New Load.BT_326106099_326767038_2 Bus1=node_418181661.2.4 Phases=1 Model=8 zipv=(0.5,0,0.5,1,0,0,0) kv=0.1200 pf=0.92 kW=0.168493 Daily=RUR1_29
New Load.BT_326257208_326725103_1 Bus1=node_414100445.1.4 Phases=1 Model=8 zipv=(0.5,0,0.5,1,0,0,0) kv=0.1270 pf=0.92 kW=5.700000 Daily=RES1_25
New Load.BT_326257208_326725103_2 Bus1=node_414100445.2.4 Phases=1 Model=8 zipv=(0.5,0,0.5,1,0,0,0) kv=0.1270 pf=0.92 kW=5.700000 Daily=RES1_25
New Load.BT_326257208_326725103_3 Bus1=node_414100445.3.4 Phases=1 Model=8 zipv=(0.5,0,0.5,1,0,0,0) kv=0.1270 pf=0.92 kW=5.700000 Daily=RES1_25
New Load.BT_326107276_326745868_1 Bus1=node_414121957.1.4 Phases=1 Model=8 zipv=(0.5,0,0.5,1,0,0,0) kv=0.1270 pf=0.92 kW=4.952968 Daily=RES1_25
New Load.BT_326107276_326745868_2 Bus1=node_414121957.2.4 Phases=1 Model=8 zipv=(0.5,0,0.5,1,0,0,0) kv=0.1270 pf=0.92 kW=4.952968 Daily=RES1_25
New Load.BT_326107276_326745868_3 Bus1=node_414121957.3.4 Phases=1 Model=8 zipv=(0.5,0,0.5,1,0,0,0) kv=0.1270 pf=0.92 kW=4.952968 Daily=RES1_25
New Load.BT_325957468_326767052_1 Bus1=node_414123904.1.4 Phases=1 Model=8 zipv=(0.5,0,0.5,1,0,0,0) kv=0.1270 pf=0.92 kW=5.897717 Daily=RES1_25
New Load.BT_325957468_326767052_2 Bus1=node_414123904.2.4 Phases=1 Model=8 zipv=(0.5,0,0.5,1,0,0,0) kv=0.1270 pf=0.92 kW=5.897717 Daily=RES1_25
New Load.BT_325957468_326767052_3 Bus1=node_414123904.3.4 Phases=1 Model=8 zipv=(0.5,0,0.5,1,0,0,0) kv=0.1270 pf=0.92 kW=5.897717 Daily=RES1_25
New Load.BT_326256268_326707758_1 Bus1=node_415498749.1.4 Phases=1 Model=8 zipv=(0.5,0,0.5,1,0,0,0) kv=0.1200 pf=0.92 kW=0.004795 Daily=RUR1_29
New Load.BT_326256268_326707758_2 Bus1=node_415498749.2.4 Phases=1 Model=8 zipv=(0.5,0,0.5,1,0,0,0) kv=0.1200 pf=0.92 kW=0.004795 Daily=RUR1_29
New Load.BT_326384026_326721923_1 Bus1=node_403580060.1.4 Phases=1 Model=8 zipv=(0.5,0,0.5,1,0,0,0) kv=0.1270 pf=0.92 kW=12.070320 Daily=RES1_25
New Load.BT_326384026_326721923_2 Bus1=node_403580060.2.4 Phases=1 Model=8 zipv=(0.5,0,0.5,1,0,0,0) kv=0.1270 pf=0.92 kW=12.070320 Daily=RES1_25
New Load.BT_326384026_326721923_3 Bus1=node_403580060.3.4 Phases=1 Model=8 zipv=(0.5,0,0.5,1,0,0,0) kv=0.1270 pf=0.92 kW=12.070320 Daily=RES1_25
New Load.BT_326385049_326705016_1 Bus1=node_403580048.1.4 Phases=1 Model=8 zipv=(0.5,0,0.5,1,0,0,0) kv=0.1270 pf=0.92 kW=5.663470 Daily=RES1_25
New Load.BT_326385049_326705016_2 Bus1=node_403580048.2.4 Phases=1 Model=8 zipv=(0.5,0,0.5,1,0,0,0) kv=0.1270 pf=0.92 kW=5.663470 Daily=RES1_25
New Load.BT_326385049_326705016_3 Bus1=node_403580048.3.4 Phases=1 Model=8 zipv=(0.5,0,0.5,1,0,0,0) kv=0.1270 pf=0.92 kW=5.663470 Daily=RES1_25
New Load.BT_326383201_326744521_1 Bus1=node_414123361.1.4 Phases=1 Model=8 zipv=(0.5,0,0.5,1,0,0,0) kv=0.1270 pf=0.92 kW=3.768037 Daily=RES1_25
New Load.BT_326383201_326744521_2 Bus1=node_414123361.2.4 Phases=1 Model=8 zipv=(0.5,0,0.5,1,0,0,0) kv=0.1270 pf=0.92 kW=3.768037 Daily=RES1_25
New Load.BT_326383201_326744521_3 Bus1=node_414123361.3.4 Phases=1 Model=8 zipv=(0.5,0,0.5,1,0,0,0) kv=0.1270 pf=0.92 kW=3.768037 Daily=RES1_25
New Load.BT_325954411_326721929_1 Bus1=node_403579367.1.4 Phases=1 Model=8 zipv=(0.5,0,0.5,1,0,0,0) kv=0.1270 pf=0.92 kW=3.584018 Daily=RES1_25
New Load.BT_325954411_326721929_2 Bus1=node_403579367.2.4 Phases=1 Model=8 zipv=(0.5,0,0.5,1,0,0,0) kv=0.1270 pf=0.92 kW=3.584018 Daily=RES1_25
New Load.BT_325954411_326721929_3 Bus1=node_403579367.3.4 Phases=1 Model=8 zipv=(0.5,0,0.5,1,0,0,0) kv=0.1270 pf=0.92 kW=3.584018 Daily=RES1_25
New Load.BT_359808419_903723828_1 Bus1=node_414100466.1.4 Phases=1 Model=8 zipv=(0.5,0,0.5,1,0,0,0) kv=0.1270 pf=0.92 kW=7.782648 Daily=RES1_25
New Load.BT_359808419_903723828_2 Bus1=node_414100466.2.4 Phases=1 Model=8 zipv=(0.5,0,0.5,1,0,0,0) kv=0.1270 pf=0.92 kW=7.782648 Daily=RES1_25
New Load.BT_359808419_903723828_3 Bus1=node_414100466.3.4 Phases=1 Model=8 zipv=(0.5,0,0.5,1,0,0,0) kv=0.1270 pf=0.92 kW=7.782648 Daily=RES1_25
New Load.BT_325955692_326724736_1 Bus1=node_415211210.1.4 Phases=1 Model=8 zipv=(0.5,0,0.5,1,0,0,0) kv=0.1200 pf=0.92 kW=0.208904 Daily=RES1_25
New Load.BT_325955692_326724736_2 Bus1=node_415211210.2.4 Phases=1 Model=8 zipv=(0.5,0,0.5,1,0,0,0) kv=0.1200 pf=0.92 kW=0.208904 Daily=RES1_25
New Load.BT_326106743_326724899_1 Bus1=node_414846990.1.4 Phases=1 Model=8 zipv=(0.5,0,0.5,1,0,0,0) kv=0.1200 pf=0.92 kW=0.366438 Daily=RUR1_29
New Load.BT_326106743_326724899_2 Bus1=node_414846990.2.4 Phases=1 Model=8 zipv=(0.5,0,0.5,1,0,0,0) kv=0.1200 pf=0.92 kW=0.366438 Daily=RUR1_29
New Load.BT_326256124_2564780443_1 Bus1=node_403579100.1.4 Phases=1 Model=8 zipv=(0.5,0,0.5,1,0,0,0) kv=0.1270 pf=0.92 kW=3.059817 Daily=RES1_25
New Load.BT_326256124_2564780443_2 Bus1=node_403579100.2.4 Phases=1 Model=8 zipv=(0.5,0,0.5,1,0,0,0) kv=0.1270 pf=0.92 kW=3.059817 Daily=RES1_25
New Load.BT_326256124_2564780443_3 Bus1=node_403579100.3.4 Phases=1 Model=8 zipv=(0.5,0,0.5,1,0,0,0) kv=0.1270 pf=0.92 kW=3.059817 Daily=RES1_25
New Load.BT_326104321_326745691_1 Bus1=node_403579109.1.4 Phases=1 Model=8 zipv=(0.5,0,0.5,1,0,0,0) kv=0.1270 pf=0.92 kW=2.935160 Daily=RES1_25
New Load.BT_326104321_326745691_2 Bus1=node_403579109.2.4 Phases=1 Model=8 zipv=(0.5,0,0.5,1,0,0,0) kv=0.1270 pf=0.92 kW=2.935160 Daily=RES1_25
New Load.BT_326104321_326745691_3 Bus1=node_403579109.3.4 Phases=1 Model=8 zipv=(0.5,0,0.5,1,0,0,0) kv=0.1270 pf=0.92 kW=2.935160 Daily=RES1_25
New Load.BT_326523247_326765043_1 Bus1=node_415889368.1.4 Phases=1 Model=8 zipv=(0.5,0,0.5,1,0,0,0) kv=0.1270 pf=0.92 kW=4.358904 Daily=RES1_25
...

! --- cargas de media tensao (UCMT_tab) ---
New Load.MT_node_171051263_6 Bus1=node_171051263.1.2.3 Phases=3 Conn=wye Model=8 zipv=(0.5,0,0.5,1,0,0,0) kv=13.8000 pf=0.92 kW=1066.0274 Daily=MT1_1
New Load.MT_node_1565385642_7 Bus1=node_1565385642.1.2.3 Phases=3 Conn=wye Model=8 zipv=(0.5,0,0.5,1,0,0,0) kv=13.8000 pf=0.92 kW=347.1233 Daily=MT1_1
New Load.MT_node_171051258_9 Bus1=node_171051258.1.2.3 Phases=3 Conn=wye Model=8 zipv=(0.5,0,0.5,1,0,0,0) kv=13.8000 pf=0.92 kW=59.2945 Daily=MT1_1
New Load.MT_node_119451656_10 Bus1=node_119451656.1.2.3 Phases=3 Conn=wye Model=8 zipv=(0.5,0,0.5,1,0,0,0) kv=13.8000 pf=0.92 kW=60.5644 Daily=MT1_1
New Load.MT_node_119452726_11 Bus1=node_119452726.1.2.3 Phases=3 Conn=wye Model=8 zipv=(0.5,0,0.5,1,0,0,0) kv=13.8000 pf=0.92 kW=53.9123 Daily=MT1_1
New Load.MT_node_112262103_12 Bus1=node_112262103.1.2.3 Phases=3 Conn=wye Model=8 zipv=(0.5,0,0.5,1,0,0,0) kv=13.8000 pf=0.92 kW=59.3658 Daily=MT1_1
New Load.MT_node_125865427_13 Bus1=node_125865427.1.2.3 Phases=3 Conn=wye Model=8 zipv=(0.5,0,0.5,1,0,0,0) kv=13.8000 pf=0.92 kW=32.8000 Daily=MT1_1
New Load.MT_node_122728590_15 Bus1=node_122728590.1.2.3 Phases=3 Conn=wye Model=8 zipv=(0.5,0,0.5,1,0,0,0) kv=13.8000 pf=0.92 kW=27.1836 Daily=MT1_1
New Load.MT_node_1876150693_17 Bus1=node_1876150693.1.2.3 Phases=3 Conn=wye Model=8 zipv=(0.5,0,0.5,1,0,0,0) kv=13.8000 pf=0.92 kW=70.0000 Daily=MT1_1
New Load.MT_node_111608151_18 Bus1=node_111608151.1.2.3 Phases=3 Conn=wye Model=8 zipv=(0.5,0,0.5,1,0,0,0) kv=13.8000 pf=0.92 kW=17.0740 Daily=MT1_1
New Load.MT_node_2301599975_20 Bus1=node_2301599975.1.2.3 Phases=3 Conn=wye Model=8 zipv=(0.5,0,0.5,1,0,0,0) kv=13.8000 pf=0.92 kW=5.2740 Daily=MT1_1
New Load.MT_node_2288895314_21 Bus1=node_2288895314.1.2.3 Phases=3 Conn=wye Model=8 zipv=(0.5,0,0.5,1,0,0,0) kv=13.8000 pf=0.92 kW=7.6712 Daily=MT1_1
New Load.MT_node_112262233_22 Bus1=node_112262233.1.2.3 Phases=3 Conn=wye Model=8 zipv=(0.5,0,0.5,1,0,0,0) kv=13.8000 pf=0.92 kW=10.9521 Daily=MT1_1
New Load.MT_node_111608126_23 Bus1=node_111608126.1.2.3 Phases=3 Conn=wye Model=8 zipv=(0.5,0,0.5,1,0,0,0) kv=13.8000 pf=0.92 kW=4.2685 Daily=MT1_1
New Load.MT_node_112261773_24 Bus1=node_112261773.1.2.3 Phases=3 Conn=wye Model=8 zipv=(0.5,0,0.5,1,0,0,0) kv=13.8000 pf=0.92 kW=4.5493 Daily=MT1_1
New Load.MT_node_114544594_25 Bus1=node_114544594.1.2.3 Phases=3 Conn=wye Model=8 zipv=(0.5,0,0.5,1,0,0,0) kv=13.8000 pf=0.92 kW=29.0548 Daily=MT1_1
New Load.MT_node_112429949_26 Bus1=node_112429949.1.2.3 Phases=3 Conn=wye Model=8 zipv=(0.5,0,0.5,1,0,0,0) kv=13.8000 pf=0.92 kW=1.6849 Daily=MT1_1
New Load.MT_node_125461208_27 Bus1=node_125461208.1.2.3 Phases=3 Conn=wye Model=8 zipv=(0.5,0,0.5,1,0,0,0) kv=13.8000 pf=0.92 kW=10.7836 Daily=MT1_1
New Load.MT_node_112262263_28 Bus1=node_112262263.1.2.3 Phases=3 Conn=wye Model=8 zipv=(0.5,0,0.5,1,0,0,0) kv=13.8000 pf=0.92 kW=12.9178 Daily=MT1_1
New Load.MT_node_114221012_33 Bus1=node_114221012.1.2.3 Phases=3 Conn=wye Model=8 zipv=(0.5,0,0.5,1,0,0,0) kv=13.8000 pf=0.92 kW=0.1562 Daily=MT4_1
New Load.MT_node_2559709756_35 Bus1=node_2559709756.1.2.3 Phases=3 Conn=wye Model=8 zipv=(0.5,0,0.5,1,0,0,0) kv=13.8000 pf=0.92 kW=0.9589 Daily=MT1_1
New Load.MT_node_112430444_36 Bus1=node_112430444.1.2.3 Phases=3 Conn=wye Model=8 zipv=(0.5,0,0.5,1,0,0,0) kv=13.8000 pf=0.92 kW=18.6466 Daily=MT1_1
New Load.MT_node_109538279_37 Bus1=node_109538279.1.2.3 Phases=3 Conn=wye Model=8 zipv=(0.5,0,0.5,1,0,0,0) kv=13.8000 pf=0.92 kW=11.1205 Daily=MT1_1
New Load.MT_node_112431004_38 Bus1=node_112431004.1.2.3 Phases=3 Conn=wye Model=8 zipv=(0.5,0,0.5,1,0,0,0) kv=13.8000 pf=0.92 kW=52.0644 Daily=MT1_1
New Load.MT_node_1942700276_44 Bus1=node_1942700276.1.2.3 Phases=3 Conn=wye Model=8 zipv=(0.5,0,0.5,1,0,0,0) kv=13.8000 pf=0.92 kW=55.6164 Daily=MT2_1
